Version 4
SHEET 1 880 680
WIRE 32 112 -240 112
WIRE 80 112 32 112
WIRE 208 112 160 112
WIRE 256 112 208 112
WIRE 400 112 336 112
WIRE 592 112 400 112
WIRE -240 336 -240 112
WIRE 32 336 32 112
WIRE 400 336 400 112
WIRE 592 336 592 112
WIRE -240 608 -240 416
WIRE 32 608 32 416
WIRE 32 608 -240 608
WIRE 176 608 32 608
WIRE 400 608 400 416
WIRE 400 608 256 608
WIRE 592 608 592 416
WIRE 592 608 400 608
FLAG 400 112 0
FLAG 32 112 1
FLAG 400 608 3
FLAG 32 608 2
FLAG 208 112 4
SYMBOL voltage 64 112 R270
WINDOW 0 32 56 VTop 2
WINDOW 3 -32 56 VBottom 2
SYMATTR InstName E1
SYMATTR Value 1
SYMBOL voltage -240 320 R0
WINDOW 123 0 0 Left 0
WINDOW 39 0 0 Left 0
SYMATTR InstName E2
SYMATTR Value 8
SYMBOL current 592 336 R0
SYMATTR InstName J1
SYMATTR Value 5
SYMBOL res 48 432 R180
WINDOW 0 36 76 Left 2
WINDOW 3 36 40 Left 2
SYMATTR InstName R2
SYMATTR Value -2
SYMBOL res 384 320 R0
SYMATTR InstName R1
SYMATTR Value 2.5
SYMBOL res 272 592 R90
WINDOW 0 0 56 VBottom 2
WINDOW 3 32 56 VTop 2
SYMATTR InstName R3
SYMATTR Value 0.142857142
SYMBOL res 240 128 R270
WINDOW 0 32 56 VTop 2
WINDOW 3 0 56 VBottom 2
SYMATTR InstName R4
SYMATTR Value 0.142857142
TEXT -274 658 Left 2 !.op
